/*--------------------------------*- C++ -*----------------------------------*\
| =========                 |                                                 |
| \\      /  F ield         | OpenFOAM: The Open Source CFD Toolbox           |
|  \\    /   O peration     | Version:  v2206                                 |
|   \\  /    A nd           | Website:  www.openfoam.com                      |
|    \\/     M anipulation  |                                                 |
\*---------------------------------------------------------------------------*/
FoamFile
{
    version     2.0;
    format      ascii;
    class       volScalarField;
    object      k;
}
// * * * * * * * * * * * * * * * * * * * * * * * * * * * * * * * * * * * * * //

#include        "include/initialConditions"

dimensions      [0 2 -2 0 0 0 0];

internalField   uniform $turbulentKE;

boundaryField
{
    #includeEtc "caseDicts/setConstraintTypes"

    //- Define inlet conditions
    #include "include/fixedInlet"

	/*
    outlet
    {
        type            fixedValue;
        // inletValue      $internalField;
        value           $internalField;
    }
    
    */
    
    outlet
    {
        type            zeroGradient;
    }
  
    
    ExteriorCylinder
    {
        type            fixedValue;
        // inletValue      $internalField;
        value           $internalField;
    }    

    propeller
    {
        type            kqRWallFunction;
        value           $internalField;
    }
       
    

    #include "include/frontBackUpperPatches"
}


// ************************************************************************* //
